code/cases/bench/IEEE9_all_wind.raw
0,   100.00, 31, 0, 1, 60.00     / PSS(R)E-31.1    MON, JAN 11 2010  15:42
IEEE 9 NODES TESTING SYSTEM
CREATED BY LI CHANGGANG
     1,'BUS__1__    ',  16.5000,3,   1,   1,   1,1.04000,   0.0000
     2,'BUS__2__    ',  18.0000,2,   2,   1,   1,1.02500,   9.2800
     3,'BUS__3__    ',  13.8000,2,   3,   1,   1,1.02500,   4.6648
     4,'BUS__4__    ', 230.0000,1,   1,   1,   1,1.02579,  -2.2168
     5,'BUS__5__    ', 230.0000,1,   1,   1,   1,0.99563,  -3.9888
     6,'BUS__6__    ', 230.0000,1,   3,   1,   1,1.01265,  -3.6873
     7,'BUS__7__    ', 230.0000,1,   2,   1,   1,1.02577,   3.7197
     8,'BUS__8__    ', 230.0000,1,   2,   1,   1,1.01588,   0.7276
     9,'BUS__9__    ', 230.0000,1,   3,   1,   1,1.03235,   1.9668
0 / END OF BUS DATA, BEGIN LOAD DATA
     5,'1 ',1,   1,   1,   125.000,    50.000,     0.000,     0.000,     0.000,     0.000,   1
     6,'1 ',1,   1,   1,    90.000,    30.000,     0.000,     0.000,     0.000,     0.000,   1
     8,'1 ',1,   1,   1,   100.000,    35.000,     0.000,     0.000,     0.000,     0.000,   1
0 / END OF LOAD DATA, BEGIN FIXED SHUNT DATA
0 / END OF FIXED SHUNT DATA, BEGIN GENERATOR DATA
     1,'1 ',    71.641,    27.046,   999.000,  -999.000,1.04000,     0,   247.500, 0.00000E+0, 9.90000E-2, 0.00000E+0, 0.00000E+0,1.00000,1,  100.0,   137.000,    60.000,   1,1.0000
     2,'1 ',   163.000,     6.654,   999.000,  -999.000,1.02500,     0,   192.000, 0.00000E+0, 1.70900E-1, 0.00000E+0, 0.00000E+0,1.00000,1,  100.0,   200.000,   100.000,   1,1.0000, 0, 0, 0, 0, 0, 0, 1, 1.0
     3,'1 ',    85.000,   -10.860,   999.000,  -999.000,1.02500,     0,   128.000, 0.00000E+0, 1.37000E-1, 0.00000E+0, 0.00000E+0,1.00000,1,  100.0,   140.000,    70.000,   1,1.0000, 0, 0, 0, 0, 0, 0, 1, 1.0
0 / END OF GENERATOR DATA, BEGIN BRANCH DATA
     4,     5,'1 ', 1.00000E-2, 8.50000E-2,   0.17600,    0.00,    0.00,    0.00,  0.00000,  0.00000,  0.00000,  0.00000,1,1,   0.00,   1,1.0000
     4,     6,'1 ', 1.70000E-2, 9.20000E-2,   0.15800,    0.00,    0.00,    0.00,  0.00000,  0.00000,  0.00000,  0.00000,1,1,   0.00,   1,1.0000
     5,     7,'1 ', 3.20000E-2, 1.61000E-1,   0.30600,    0.00,    0.00,    0.00,  0.00000,  0.00000,  0.00000,  0.00000,1,1,   0.00,   1,1.0000
     6,     9,'1 ', 3.90000E-2, 1.70000E-1,   0.35800,    0.00,    0.00,    0.00,  0.00000,  0.00000,  0.00000,  0.00000,1,1,   0.00,   1,1.0000
     7,     8,'1 ', 8.50000E-3, 7.20000E-2,   0.14900,    0.00,    0.00,    0.00,  0.00000,  0.00000,  0.00000,  0.00000,1,1,   0.00,   1,1.0000
     8,     9,'1 ', 1.19000E-2, 1.00800E-1,   0.20900,    0.00,    0.00,    0.00,  0.00000,  0.00000,  0.00000,  0.00000,1,1,   0.00,   1,1.0000
0 / END OF BRANCH DATA, BEGIN TRANSFORMER DATA
     4,     1,     0,'1 ',1,1,1, 0.00000E+0, 0.00000E+0,1,'STEPUP1     ',1,   1,1.0000
 0.00000E+0, 5.76000E-2,   100.00
1.00000, 230.000,   0.000,     0.00,     0.00,     0.00, 0,      0, 1.10000, 0.90000, 1.10000, 0.90000,  33, 0, 0.00000, 0.00000
1.00000,  16.500
     7,     2,     0,'1 ',1,1,1, 0.00000E+0, 0.00000E+0,1,'STEPUP2     ',1,   1,1.0000
 0.00000E+0, 6.25000E-2,   100.00
1.00000, 230.000,   0.000,     0.00,     0.00,     0.00, 0,      0, 1.10000, 0.90000, 1.10000, 0.90000,  33, 0, 0.00000, 0.00000
1.00000,  18.000
     9,     3,     0,'1 ',1,1,1, 0.00000E+0, 0.00000E+0,1,'STEPUP3     ',1,   1,1.0000
 0.00000E+0, 5.86000E-2,   100.00
1.00000, 230.000,   0.000,     0.00,     0.00,     0.00, 0,      0, 1.10000, 0.90000, 1.10000, 0.90000,  33, 0, 0.00000, 0.00000
1.00000,  13.800
0 / END OF TRANSFORMER DATA, BEGIN AREA DATA
1, 1, 0.0, 10.0, "AREA 1"
2, 0, 0.0, 10.0, "AREA 2"
3, 0, 0.0, 10.0, "AREA 3"
0 / END OF AREA DATA, BEGIN TWO-TERMINAL DC DATA
0 / END OF TWO-TERMINAL DC DATA, BEGIN VSC DC LINE DATA
0 / END OF VSC DC LINE DATA, BEGIN IMPEDANCE CORRECTION DATA
0 / END OF IMPEDANCE CORRECTION DATA, BEGIN MULTI-TERMINAL DC DATA
0 / END OF MULTI-TERMINAL DC DATA, BEGIN MULTI-SECTION LINE DATA
0 / END OF MULTI-SECTION LINE DATA, BEGIN ZONE DATA
1, "ZONE 1"
0 / END OF ZONE DATA, BEGIN INTER-AREA TRANSFER DATA
0 / END OF INTER-AREA TRANSFER DATA, BEGIN OWNER DATA
0 / END OF OWNER DATA, BEGIN FACTS DEVICE DATA
1, "SYSTEM OWNER"
0 / END OF FACTS DEVICE DATA, BEGIN SWITCHED SHUNT DATA
0 / END OF SWITCHED SHUNT DATA
